Info: SIMULATION PARAMETERS:
Info: TIMESTEP               2
Info: NUMBER OF STEPS        0
Info: STEPS PER CYCLE        10
Info: PERIODIC CELL BASIS 1  34.9486 0 0
Info: PERIODIC CELL BASIS 2  0 46.2832 0
Info: PERIODIC CELL BASIS 3  0 0 39.6713
Info: PERIODIC CELL CENTER   0 0 0
Info: WRAPPING ALL CLUSTERS AROUND PERIODIC BOUNDARIES ON OUTPUT.
Info: FIRST LDB TIMESTEP     50
Info: LAST LDB TIMESTEP     -1
Info: HOM BACKGROUND SCALING 1
Info: PME BACKGROUND SCALING 1
Info: MIN ATOMS PER PATCH    40
Info: VELOCITY FILE          equil3.restart.vel
Info: CENTER OF MASS MOVING INITIALLY? NO
Info: DIELECTRIC             1
Info: EXCLUDE                SCALED ONE-FOUR
Info: 1-4 ELECTROSTATICS SCALED BY 1
Info: MODIFIED 1-4 VDW PARAMETERS WILL BE USED
Info: DCD FILENAME           prod.dcd
Info: DCD FREQUENCY          2500
Info: DCD FIRST STEP         2500
Info: DCD FILE WILL CONTAIN UNIT CELL DATA
Info: XST FILENAME           prod.xst
Info: XST FREQUENCY          5000
Info: NO VELOCITY DCD OUTPUT
Info: NO FORCE DCD OUTPUT
Info: OUTPUT FILENAME        prod
Info: BINARY OUTPUT FILES WILL BE USED
Info: RESTART FILENAME       prod.restart
Info: RESTART FREQUENCY      2500
Info: BINARY RESTART FILES WILL BE USED
Info: SWITCHING ACTIVE
Info: SWITCHING ON           10
Info: SWITCHING OFF          12
Info: PAIRLIST DISTANCE      14
Info: PAIRLIST SHRINK RATE   0.01
Info: PAIRLIST GROW RATE     0.01
Info: PAIRLIST TRIGGER       0.3
Info: PAIRLISTS PER CYCLE    2
Info: PAIRLISTS ENABLED
Info: MARGIN                 0.495
Info: HYDROGEN GROUP CUTOFF  2.5
Info: PATCH DIMENSION        16.995
Info: ENERGY OUTPUT STEPS    5000
Info: CROSSTERM ENERGY INCLUDED IN DIHEDRAL
Info: TIMING OUTPUT STEPS    50000
Info: LANGEVIN DYNAMICS ACTIVE
Info: LANGEVIN TEMPERATURE   300
Info: LANGEVIN DAMPING COEFFICIENT IS 1 INVERSE PS
Info: LANGEVIN DYNAMICS NOT APPLIED TO HYDROGENS
Info: LANGEVIN PISTON PRESSURE CONTROL ACTIVE
Info:        TARGET PRESSURE IS 1.01325 BAR
Info:     OSCILLATION PERIOD IS 100 FS
Info:             DECAY TIME IS 50 FS
Info:     PISTON TEMPERATURE IS 300 K
Info:       PRESSURE CONTROL IS GROUP-BASED
Info:    INITIAL STRAIN RATE IS -9.58469e-05 -9.58469e-05 -9.58469e-05
Info:       CELL FLUCTUATION IS ISOTROPIC
Info: PARTICLE MESH EWALD (PME) ACTIVE
Info: PME TOLERANCE               1e-06
Info: PME EWALD COEFFICIENT       0.257952
Info: PME INTERPOLATION ORDER     4
Info: PME GRID DIMENSIONS         40 50 45
Info: PME MAXIMUM GRID SPACING    1.5
Info: FULL ELECTROSTATIC EVALUATION FREQUENCY      2
Info: USING VERLET I (r-RESPA) MTS SCHEME.
Info: C1 SPLITTING OF LONG RANGE ELECTROSTATICS
Info: PLACING ATOMS IN PATCHES BY HYDROGEN GROUPS
Info: RIGID BONDS TO HYDROGEN : ALL
Info:         ERROR TOLERANCE : 1e-08
Info:          MAX ITERATIONS : 100
Info: RIGID WATER USING SETTLE ALGORITHM
Info: RANDOM NUMBER SEED     1509677060
Info: USE HYDROGEN BONDS?    NO
Info: COORDINATE PDB         ionized_center.pdb
Info: STRUCTURE FILE         ionized.psf
Info: PARAMETER file: CHARMM format!
Info: PARAMETERS             par_all27_prot_lipid.inp
Info: USING ARITHMETIC MEAN TO COMBINE L-J SIGMA PARAMETERS
Info: BINARY COORDINATES     equil3.restart.coor
Info: SUMMARY OF PARAMETERS:
Info: 180 BONDS
Info: 447 ANGLES
Info: 566 DIHEDRAL
Info: 46 IMPROPER
Info: 6 CROSSTERM
Info: 119 VDW
Info: 0 VDW_PAIRS
Info: 0 NBTHOLE_PAIRS
Info: STRUCTURE SUMMARY:
Info: 6591 ATOMS
Info: 4692 BONDS
Info: 3513 ANGLES
Info: 2370 DIHEDRALS
Info: 141 IMPROPERS
Info: 56 CROSSTERMS
Info: 0 EXCLUSIONS
Info: 6117 RIGID BONDS
Info: 13656 DEGREES OF FREEDOM
Info: 2367 HYDROGEN GROUPS
Info: 4 ATOMS IN LARGEST HYDROGEN GROUP
Info: 2367 MIGRATION GROUPS
Info: 4 ATOMS IN LARGEST MIGRATION GROUP
Info: TOTAL MASS = 41242.5 amu
Info: TOTAL CHARGE = 7.26432e-07 e
Info: MASS DENSITY = 1.06727 g/cm^3
Info: ATOM DENSITY = 0.102712 atoms/A^3
Info: REMOVING COM VELOCITY 0.012561 -0.117578 0.0022865
Info: NONBONDED TABLE R-SQUARED SPACING: 0.0625
Info: NONBONDED TABLE SIZE: 769 POINTS
TCL: Running for 2500000 steps
ETITLE: TS BOND ANGLE DIHED IMPRP ELECT VDW BOUNDARY MISC KINETIC TOTAL TEMP POTENTIAL TOTAL3 TEMPAVG PRESSURE GPRESSURE VOLUME PRESSAVG GPRESSAVG
ENERGY: 0 197.4759 502.1536 223.4007 27.9336 -25131.4903 1735.8008 0.0000 0.0000 4023.4994 -18421.2263 296.5315 -22444.7257 -18406.2665 296.5315 -57.1644 -19.3907 64169.6386 -57.1644 -19.3907
ENERGY: 500000 185.2504 470.3047 225.7299 24.1432 -25276.5350 1784.0240 0.0000 0.0000 4084.9764 -18502.1065 301.0623 -22587.0829 -18487.4435 300.8074 -44.5976 -30.2116 64212.2448 1.1104 1.0513
ENERGY: 1000000 187.2199 508.0347 221.8856 29.6919 -25291.8438 1862.5614 0.0000 0.0000 4093.8950 -18388.5552 301.7196 -22482.4503 -18370.9768 299.0688 654.1858 693.9697 64498.9895 -2.2992 -2.3586
ENERGY: 1500000 184.2242 554.9387 224.7493 33.5922 -25353.1892 1832.5071 0.0000 0.0000 3999.7334 -18523.4442 294.7799 -22523.1777 -18511.2030 298.0807 70.3196 109.4983 64407.2428 1.7623 1.8455
ENERGY: 2000000 199.8546 528.0800 228.5804 34.6714 -25260.8113 1751.8898 0.0000 0.0000 4082.8863 -18434.8488 300.9083 -22517.7351 -18419.4099 300.3353 -5.5749 39.8251 64268.5997 3.2089 3.3301
ENERGY: 2500000 180.5539 487.7682 233.0703 31.2321 -25166.2845 1662.9006 0.0000 0.0000 3967.9510 -18602.8084 292.4376 -22570.7594 -18588.3898 298.7899 -587.3120 -560.7795 63963.0089 6.5681 6.4804
